602
data/xyz/DAXNEY
Ni		3.52095		3.52095		3.85245
Ni		10.5629		3.52095		3.85245
Ni		3.52095		10.5629		3.85245
Ni		10.5629		10.5629		3.85245
Ni		3.52095		3.52095		3.85245
Ni		3.52095		3.52095		3.85245
Ni		3.52095		3.52095		3.85245
Ni		3.52095		3.52095		3.85245
F		3.52095		3.52095		1.84686
F		10.5629		3.52095		1.84686
F		3.52095		10.5629		1.84686
F		10.5629		10.5629		1.84686
F		3.52095		3.52095		1.84686
F		3.52095		3.52095		1.84686
F		3.52095		3.52095		1.84686
F		3.52095		3.52095		1.84686
N		1.39641		3.52095		3.85245
N		8.43831		3.52095		3.85245
N		1.39641		10.5629		3.85245
N		8.43831		10.5629		3.85245
N		1.39641		3.52095		3.85245
N		1.39641		3.52095		3.85245
N		1.39641		3.52095		3.85245
N		1.39641		3.52095		3.85245
C		3.20477		0.686585		2.77068
C		10.2467		0.686585		2.77068
C		3.20477		7.72849		2.77068
C		10.2467		7.72849		2.77068
C		3.20477		0.686585		2.77068
C		3.20477		0.686585		2.77068
C		3.20477		0.686585		2.77068
C		3.20477		0.686585		2.77068
Al		3.52095		3.52095		7.7049
Al		10.5629		3.52095		7.7049
Al		3.52095		10.5629		7.7049
Al		10.5629		10.5629		7.7049
Al		3.52095		3.52095		7.7049
Al		3.52095		3.52095		7.7049
Al		3.52095		3.52095		7.7049
Al		3.52095		3.52095		7.7049
F		2.33016		4.71174		7.7049
F		9.37206		4.71174		7.7049
F		2.33016		11.7536		7.7049
F		9.37206		11.7536		7.7049
F		2.33016		4.71174		7.7049
F		2.33016		4.71174		7.7049
F		2.33016		4.71174		7.7049
F		2.33016		4.71174		7.7049
N		3.52095		1.39641		3.85245
N		10.5629		1.39641		3.85245
N		3.52095		8.43831		3.85245
N		10.5629		8.43831		3.85245
N		3.52095		1.39641		3.85245
N		3.52095		1.39641		3.85245
N		3.52095		1.39641		3.85245
N		3.52095		1.39641		3.85245
F		3.52095		3.52095		5.85804
F		10.5629		3.52095		5.85804
F		3.52095		10.5629		5.85804
F		10.5629		10.5629		5.85804
F		3.52095		3.52095		5.85804
F		3.52095		3.52095		5.85804
F		3.52095		3.52095		5.85804
F		3.52095		3.52095		5.85804
N		5.64549		3.52095		3.85245
N		12.6874		3.52095		3.85245
N		5.64549		10.5629		3.85245
N		12.6874		10.5629		3.85245
N		5.64549		3.52095		3.85245
N		5.64549		3.52095		3.85245
N		5.64549		3.52095		3.85245
N		5.64549		3.52095		3.85245
N		3.52095		5.64549		3.85245
N		10.5629		5.64549		3.85245
N		3.52095		12.6874		3.85245
N		10.5629		12.6874		3.85245
N		3.52095		5.64549		3.85245
N		3.52095		5.64549		3.85245
N		3.52095		5.64549		3.85245
N		3.52095		5.64549		3.85245
C		3.83713		0.686585		4.93422
C		10.879		0.686585		4.93422
C		3.83713		7.72849		4.93422
C		10.879		7.72849		4.93422
C		3.83713		0.686585		4.93422
C		3.83713		0.686585		4.93422
C		3.83713		0.686585		4.93422
C		3.83713		0.686585		4.93422
C		6.35531		3.83713		4.93422
C		13.3972		3.83713		4.93422
C		6.35531		10.879		4.93422
C		13.3972		10.879		4.93422
C		6.35531		3.83713		4.93422
C		6.35531		3.83713		4.93422
C		6.35531		3.83713		4.93422
C		6.35531		3.83713		4.93422
C		6.35531		3.20477		2.77068
C		13.3972		3.20477		2.77068
C		6.35531		10.2467		2.77068
C		13.3972		10.2467		2.77068
C		6.35531		3.20477		2.77068
C		6.35531		3.20477		2.77068
C		6.35531		3.20477		2.77068
C		6.35531		3.20477		2.77068
C		3.20477		6.35531		2.77068
C		10.2467		6.35531		2.77068
C		3.83713		6.35531		4.93422
C		10.879		6.35531		4.93422
F		3.52095		3.52095		9.55176
F		10.5629		3.52095		9.55176
F		3.52095		10.5629		9.55176
F		10.5629		10.5629		9.55176
F		3.52095		3.52095		9.55176
F		3.52095		3.52095		9.55176
F		3.52095		3.52095		9.55176
F		3.52095		3.52095		9.55176
F		4.71174		2.33016		7.7049
F		11.7536		2.33016		7.7049
F		4.71174		9.37206		7.7049
F		11.7536		9.37206		7.7049
F		4.71174		2.33016		7.7049
F		4.71174		2.33016		7.7049
F		4.71174		2.33016		7.7049
F		4.71174		2.33016		7.7049
F		4.71174		4.71174		7.7049
F		11.7536		4.71174		7.7049
F		4.71174		11.7536		7.7049
F		11.7536		11.7536		7.7049
F		4.71174		4.71174		7.7049
F		4.71174		4.71174		7.7049
F		4.71174		4.71174		7.7049
F		4.71174		4.71174		7.7049
C		7.72849		3.83713		4.93422
C		7.72849		10.879		4.93422
C		7.72849		3.83713		4.93422
C		7.72849		3.83713		4.93422
C		7.72849		3.83713		4.93422
C		7.72849		3.83713		4.93422
C		7.72849		3.20477		2.77068
C		7.72849		10.2467		2.77068
C		7.72849		3.20477		2.77068
C		7.72849		3.20477		2.77068
C		7.72849		3.20477		2.77068
C		7.72849		3.20477		2.77068
N		3.52095		5.64549		3.85245
N		10.5629		5.64549		3.85245
Ni		3.52095		3.52095		11.5573
Ni		10.5629		3.52095		11.5573
Ni		3.52095		10.5629		11.5573
Ni		10.5629		10.5629		11.5573
Ni		3.52095		3.52095		11.5573
Ni		3.52095		3.52095		11.5573
Ni		3.52095		3.52095		11.5573
Ni		3.52095		3.52095		11.5573
N		8.43831		3.52095		3.85245
N		8.43831		10.5629		3.85245
N		8.43831		3.52095		3.85245
N		8.43831		3.52095		3.85245
N		8.43831		3.52095		3.85245
N		8.43831		3.52095		3.85245
Ni		3.52095		3.52095		3.85245
Ni		10.5629		3.52095		3.85245
Ni		10.5629		3.52095		3.85245
Ni		10.5629		10.5629		3.85245
Ni		10.5629		3.52095		3.85245
Ni		10.5629		3.52095		3.85245
Ni		10.5629		3.52095		3.85245
Ni		10.5629		3.52095		3.85245
Ni		3.52095		3.52095		3.85245
F		3.52095		3.52095		1.84686
N		5.64549		3.52095		3.85245
C		3.83713		6.35531		2.77068
Al		3.52095		3.52095		7.7049
F		4.71174		2.33016		7.7049
N		3.52095		5.64549		3.85245
F		3.52095		3.52095		5.85804
N		1.39641		3.52095		3.85245
N		3.52095		1.39641		3.85245
C		3.20477		6.35531		4.93422
C		0.686585		3.20477		4.93422
C		0.686585		3.83713		2.77068
C		3.83713		0.686585		2.77068
C		3.83713		7.72849		2.77068
C		3.20477		0.686585		4.93422
C		3.20477		7.72849		4.93422
F		3.52095		3.52095		9.55176
F		2.33016		4.71174		7.7049
F		2.33016		2.33016		7.7049
N		3.52095		1.39641		3.85245
N		3.52095		8.43831		3.85245
Ni		3.52095		3.52095		11.5573
Ni		3.52095		3.52095		3.85245
Ni		3.52095		10.5629		3.85245
Ni		3.52095		3.52095		3.85245
Ni		3.52095		10.5629		3.85245
F		3.52095		3.52095		1.84686
F		3.52095		10.5629		1.84686
N		3.52095		1.39641		3.85245
N		3.52095		8.43831		3.85245
C		6.35531		3.20477		2.77068
C		6.35531		10.2467		2.77068
Al		3.52095		3.52095		7.7049
Al		3.52095		10.5629		7.7049
F		2.33016		2.33016		7.7049
F		2.33016		9.37206		7.7049
N		5.64549		3.52095		3.85245
N		5.64549		10.5629		3.85245
F		3.52095		3.52095		5.85804
F		3.52095		10.5629		5.85804
N		3.52095		5.64549		3.85245
N		3.52095		12.6874		3.85245
N		1.39641		3.52095		3.85245
N		1.39641		10.5629		3.85245
C		6.35531		3.83713		4.93422
C		6.35531		10.879		4.93422
C		3.20477		6.35531		4.93422
C		3.20477		13.3972		4.93422
C		3.83713		6.35531		2.77068
C		3.83713		13.3972		2.77068
C		0.686585		3.20477		2.77068
C		7.72849		3.20477		2.77068
C		0.686585		10.2467		2.77068
C		7.72849		10.2467		2.77068
C		0.686585		3.20477		2.77068
C		0.686585		3.20477		2.77068
C		0.686585		3.20477		2.77068
C		0.686585		3.20477		2.77068
C		0.686585		3.83713		4.93422
C		7.72849		3.83713		4.93422
C		0.686585		10.879		4.93422
C		7.72849		10.879		4.93422
C		0.686585		3.83713		4.93422
C		0.686585		3.83713		4.93422
C		0.686585		3.83713		4.93422
C		0.686585		3.83713		4.93422
F		3.52095		3.52095		9.55176
F		3.52095		10.5629		9.55176
F		4.71174		4.71174		7.7049
F		4.71174		11.7536		7.7049
F		2.33016		4.71174		7.7049
F		2.33016		11.7536		7.7049
C		3.20477		7.72849		4.93422
C		3.83713		7.72849		2.77068
N		1.39641		3.52095		3.85245
N		8.43831		3.52095		3.85245
N		1.39641		10.5629		3.85245
N		8.43831		10.5629		3.85245
N		1.39641		3.52095		3.85245
N		1.39641		3.52095		3.85245
N		1.39641		3.52095		3.85245
N		1.39641		3.52095		3.85245
Ni		3.52095		3.52095		11.5573
Ni		3.52095		10.5629		11.5573
N		3.52095		8.43831		3.85245
Ni		3.52095		3.52095		3.85245
Ni		10.5629		3.52095		3.85245
Ni		3.52095		10.5629		3.85245
Ni		10.5629		10.5629		3.85245
Ni		3.52095		3.52095		3.85245
Ni		3.52095		3.52095		3.85245
Ni		3.52095		3.52095		3.85245
Ni		3.52095		3.52095		3.85245
Ni		3.52095		10.5629		3.85245
Ni		3.52095		3.52095		3.85245
Ni		10.5629		3.52095		3.85245
F		3.52095		3.52095		1.84686
F		10.5629		3.52095		1.84686
N		3.52095		5.64549		3.85245
N		10.5629		5.64549		3.85245
C		0.686585		3.83713		2.77068
C		7.72849		3.83713		2.77068
Al		3.52095		3.52095		7.7049
Al		10.5629		3.52095		7.7049
F		4.71174		4.71174		7.7049
F		11.7536		4.71174		7.7049
N		1.39641		3.52095		3.85245
N		8.43831		3.52095		3.85245
F		3.52095		3.52095		5.85804
F		10.5629		3.52095		5.85804
N		3.52095		1.39641		3.85245
N		10.5629		1.39641		3.85245
N		5.64549		3.52095		3.85245
N		12.6874		3.52095		3.85245
C		0.686585		3.20477		4.93422
C		7.72849		3.20477		4.93422
C		3.83713		0.686585		4.93422
C		10.879		0.686585		4.93422
C		3.20477		0.686585		2.77068
C		10.2467		0.686585		2.77068
C		6.35531		3.83713		2.77068
C		6.35531		3.20477		4.93422
F		3.52095		3.52095		9.55176
F		10.5629		3.52095		9.55176
F		2.33016		2.33016		7.7049
F		9.37206		2.33016		7.7049
F		4.71174		2.33016		7.7049
F		11.7536		2.33016		7.7049
N		5.64549		3.52095		3.85245
Ni		3.52095		3.52095		11.5573
Ni		10.5629		3.52095		11.5573
Ni		3.52095		3.52095		3.85245
Ni		3.52095		3.52095		3.85245
Ni		10.5629		3.52095		3.85245
F		3.52095		3.52095		1.84686
F		10.5629		3.52095		1.84686
N		1.39641		3.52095		3.85245
N		8.43831		3.52095		3.85245
C		3.20477		6.35531		2.77068
C		10.2467		6.35531		2.77068
Al		3.52095		3.52095		7.7049
Al		10.5629		3.52095		7.7049
F		2.33016		2.33016		7.7049
F		9.37206		2.33016		7.7049
N		3.52095		5.64549		3.85245
N		10.5629		5.64549		3.85245
F		3.52095		3.52095		5.85804
F		10.5629		3.52095		5.85804
N		5.64549		3.52095		3.85245
N		12.6874		3.52095		3.85245
N		3.52095		1.39641		3.85245
N		10.5629		1.39641		3.85245
C		3.83713		6.35531		4.93422
C		10.879		6.35531		4.93422
C		6.35531		3.20477		4.93422
C		13.3972		3.20477		4.93422
C		6.35531		3.83713		2.77068
C		13.3972		3.83713		2.77068
C		3.20477		0.686585		2.77068
C		10.2467		0.686585		2.77068
C		3.20477		7.72849		2.77068
C		10.2467		7.72849		2.77068
C		3.20477		0.686585		2.77068
C		3.20477		0.686585		2.77068
C		3.20477		0.686585		2.77068
C		3.20477		0.686585		2.77068
C		3.83713		0.686585		4.93422
C		10.879		0.686585		4.93422
C		3.83713		7.72849		4.93422
C		10.879		7.72849		4.93422
C		3.83713		0.686585		4.93422
C		3.83713		0.686585		4.93422
C		3.83713		0.686585		4.93422
C		3.83713		0.686585		4.93422
F		3.52095		3.52095		9.55176
F		10.5629		3.52095		9.55176
F		4.71174		4.71174		7.7049
F		11.7536		4.71174		7.7049
F		4.71174		2.33016		7.7049
F		11.7536		2.33016		7.7049
C		7.72849		3.20477		4.93422
C		7.72849		3.83713		2.77068
N		3.52095		1.39641		3.85245
N		10.5629		1.39641		3.85245
N		3.52095		8.43831		3.85245
N		10.5629		8.43831		3.85245
N		3.52095		1.39641		3.85245
N		3.52095		1.39641		3.85245
N		3.52095		1.39641		3.85245
N		3.52095		1.39641		3.85245
Ni		3.52095		3.52095		11.5573
Ni		10.5629		3.52095		11.5573
N		8.43831		3.52095		3.85245
Ni		3.52095		3.52095		3.85245
Ni		10.5629		3.52095		3.85245
Ni		3.52095		10.5629		3.85245
Ni		10.5629		10.5629		3.85245
Ni		3.52095		3.52095		3.85245
Ni		3.52095		3.52095		3.85245
Ni		3.52095		3.52095		3.85245
Ni		3.52095		3.52095		3.85245
Ni		10.5629		3.52095		3.85245
Ni		3.52095		3.52095		3.85245
Ni		3.52095		10.5629		3.85245
F		3.52095		3.52095		1.84686
F		3.52095		10.5629		1.84686
N		5.64549		3.52095		3.85245
N		5.64549		10.5629		3.85245
C		3.83713		0.686585		2.77068
C		3.83713		7.72849		2.77068
Al		3.52095		3.52095		7.7049
Al		3.52095		10.5629		7.7049
F		4.71174		4.71174		7.7049
F		4.71174		11.7536		7.7049
N		3.52095		1.39641		3.85245
N		3.52095		8.43831		3.85245
F		3.52095		3.52095		5.85804
F		3.52095		10.5629		5.85804
N		1.39641		3.52095		3.85245
N		1.39641		10.5629		3.85245
N		3.52095		5.64549		3.85245
N		3.52095		12.6874		3.85245
C		3.20477		0.686585		4.93422
C		3.20477		7.72849		4.93422
C		0.686585		3.83713		4.93422
C		0.686585		10.879		4.93422
C		0.686585		3.20477		2.77068
C		0.686585		10.2467		2.77068
C		3.83713		6.35531		2.77068
C		3.20477		6.35531		4.93422
F		3.52095		3.52095		9.55176
F		3.52095		10.5629		9.55176
F		2.33016		2.33016		7.7049
F		2.33016		9.37206		7.7049
F		2.33016		4.71174		7.7049
F		2.33016		11.7536		7.7049
N		3.52095		5.64549		3.85245
Ni		3.52095		3.52095		11.5573
Ni		3.52095		10.5629		11.5573
Ni		3.52095		3.52095		3.85245
Ni		3.52095		3.52095		3.85245
F		3.52095		3.52095		1.84686
N		3.52095		5.64549		3.85245
C		6.35531		3.83713		2.77068
Al		3.52095		3.52095		7.7049
F		2.33016		4.71174		7.7049
N		5.64549		3.52095		3.85245
F		3.52095		3.52095		5.85804
N		3.52095		1.39641		3.85245
N		1.39641		3.52095		3.85245
C		6.35531		3.20477		4.93422
C		3.20477		0.686585		4.93422
C		3.83713		0.686585		2.77068
C		0.686585		3.83713		2.77068
C		7.72849		3.83713		2.77068
C		0.686585		3.20477		4.93422
C		7.72849		3.20477		4.93422
F		3.52095		3.52095		9.55176
F		4.71174		2.33016		7.7049
F		2.33016		2.33016		7.7049
N		1.39641		3.52095		3.85245
N		8.43831		3.52095		3.85245
Ni		3.52095		3.52095		11.5573
Ni		3.52095		3.52095		3.85245
Ni		10.5629		3.52095		3.85245
Ni		3.52095		3.52095		3.85245
Ni		10.5629		3.52095		3.85245
Ni		3.52095		10.5629		3.85245
Ni		10.5629		10.5629		3.85245
Ni		3.52095		3.52095		3.85245
Ni		3.52095		3.52095		3.85245
Ni		3.52095		3.52095		3.85245
Ni		3.52095		3.52095		3.85245
F		3.52095		3.52095		1.84686
F		10.5629		3.52095		1.84686
F		3.52095		10.5629		1.84686
F		10.5629		10.5629		1.84686
F		3.52095		3.52095		1.84686
F		3.52095		3.52095		1.84686
F		3.52095		3.52095		1.84686
F		3.52095		3.52095		1.84686
N		3.52095		1.39641		3.85245
N		10.5629		1.39641		3.85245
N		3.52095		8.43831		3.85245
N		10.5629		8.43831		3.85245
N		3.52095		1.39641		3.85245
N		3.52095		1.39641		3.85245
N		3.52095		1.39641		3.85245
N		3.52095		1.39641		3.85245
C		0.686585		3.20477		2.77068
C		7.72849		3.20477		2.77068
C		0.686585		10.2467		2.77068
C		7.72849		10.2467		2.77068
C		0.686585		3.20477		2.77068
C		0.686585		3.20477		2.77068
C		0.686585		3.20477		2.77068
C		0.686585		3.20477		2.77068
Al		3.52095		3.52095		7.7049
Al		10.5629		3.52095		7.7049
Al		3.52095		10.5629		7.7049
Al		10.5629		10.5629		7.7049
Al		3.52095		3.52095		7.7049
Al		3.52095		3.52095		7.7049
Al		3.52095		3.52095		7.7049
Al		3.52095		3.52095		7.7049
F		4.71174		2.33016		7.7049
F		11.7536		2.33016		7.7049
F		4.71174		9.37206		7.7049
F		11.7536		9.37206		7.7049
F		4.71174		2.33016		7.7049
F		4.71174		2.33016		7.7049
F		4.71174		2.33016		7.7049
F		4.71174		2.33016		7.7049
N		1.39641		3.52095		3.85245
N		8.43831		3.52095		3.85245
N		1.39641		10.5629		3.85245
N		8.43831		10.5629		3.85245
N		1.39641		3.52095		3.85245
N		1.39641		3.52095		3.85245
N		1.39641		3.52095		3.85245
N		1.39641		3.52095		3.85245
F		3.52095		3.52095		5.85804
F		10.5629		3.52095		5.85804
F		3.52095		10.5629		5.85804
F		10.5629		10.5629		5.85804
F		3.52095		3.52095		5.85804
F		3.52095		3.52095		5.85804
F		3.52095		3.52095		5.85804
F		3.52095		3.52095		5.85804
N		3.52095		5.64549		3.85245
N		10.5629		5.64549		3.85245
N		3.52095		12.6874		3.85245
N		10.5629		12.6874		3.85245
N		3.52095		5.64549		3.85245
N		3.52095		5.64549		3.85245
N		3.52095		5.64549		3.85245
N		3.52095		5.64549		3.85245
N		5.64549		3.52095		3.85245
N		12.6874		3.52095		3.85245
N		5.64549		10.5629		3.85245
N		12.6874		10.5629		3.85245
N		5.64549		3.52095		3.85245
N		5.64549		3.52095		3.85245
N		5.64549		3.52095		3.85245
N		5.64549		3.52095		3.85245
C		0.686585		3.83713		4.93422
C		7.72849		3.83713		4.93422
C		0.686585		10.879		4.93422
C		7.72849		10.879		4.93422
C		0.686585		3.83713		4.93422
C		0.686585		3.83713		4.93422
C		0.686585		3.83713		4.93422
C		0.686585		3.83713		4.93422
C		3.83713		6.35531		4.93422
C		10.879		6.35531		4.93422
C		3.83713		13.3972		4.93422
C		10.879		13.3972		4.93422
C		3.83713		6.35531		4.93422
C		3.83713		6.35531		4.93422
C		3.83713		6.35531		4.93422
C		3.83713		6.35531		4.93422
C		3.20477		6.35531		2.77068
C		10.2467		6.35531		2.77068
C		3.20477		13.3972		2.77068
C		10.2467		13.3972		2.77068
C		3.20477		6.35531		2.77068
C		3.20477		6.35531		2.77068
C		3.20477		6.35531		2.77068
C		3.20477		6.35531		2.77068
C		6.35531		3.20477		2.77068
C		6.35531		10.2467		2.77068
C		6.35531		3.83713		4.93422
C		6.35531		10.879		4.93422
F		3.52095		3.52095		9.55176
F		10.5629		3.52095		9.55176
F		3.52095		10.5629		9.55176
F		10.5629		10.5629		9.55176
F		3.52095		3.52095		9.55176
F		3.52095		3.52095		9.55176
F		3.52095		3.52095		9.55176
F		3.52095		3.52095		9.55176
F		2.33016		4.71174		7.7049
F		9.37206		4.71174		7.7049
F		2.33016		11.7536		7.7049
F		9.37206		11.7536		7.7049
F		2.33016		4.71174		7.7049
F		2.33016		4.71174		7.7049
F		2.33016		4.71174		7.7049
F		2.33016		4.71174		7.7049
F		4.71174		4.71174		7.7049
F		11.7536		4.71174		7.7049
F		4.71174		11.7536		7.7049
F		11.7536		11.7536		7.7049
F		4.71174		4.71174		7.7049
F		4.71174		4.71174		7.7049
F		4.71174		4.71174		7.7049
F		4.71174		4.71174		7.7049
C		3.83713		7.72849		4.93422
C		10.879		7.72849		4.93422
C		3.83713		7.72849		4.93422
C		3.83713		7.72849		4.93422
C		3.83713		7.72849		4.93422
C		3.83713		7.72849		4.93422
C		3.20477		7.72849		2.77068
C		10.2467		7.72849		2.77068
C		3.20477		7.72849		2.77068
C		3.20477		7.72849		2.77068
C		3.20477		7.72849		2.77068
C		3.20477		7.72849		2.77068
N		5.64549		3.52095		3.85245
N		5.64549		10.5629		3.85245
Ni		3.52095		3.52095		11.5573
Ni		10.5629		3.52095		11.5573
Ni		3.52095		10.5629		11.5573
Ni		10.5629		10.5629		11.5573
Ni		3.52095		3.52095		11.5573
Ni		3.52095		3.52095		11.5573
Ni		3.52095		3.52095		11.5573
Ni		3.52095		3.52095		11.5573
N		3.52095		8.43831		3.85245
N		10.5629		8.43831		3.85245
N		3.52095		8.43831		3.85245
N		3.52095		8.43831		3.85245
N		3.52095		8.43831		3.85245
N		3.52095		8.43831		3.85245
Ni		3.52095		3.52095		3.85245
Ni		3.52095		10.5629		3.85245
Ni		3.52095		10.5629		3.85245
Ni		10.5629		10.5629		3.85245
Ni		3.52095		10.5629		3.85245
Ni		3.52095		10.5629		3.85245
Ni		3.52095		10.5629		3.85245
Ni		3.52095		10.5629		3.85245
