833
data/xyz/WESZOK
Ag		7.55589		12.5016		14.9498
Ag		7.55589		43.9056		14.9498
Ag		7.55589		12.5016		39.1158
Ag		7.55589		43.9056		39.1158
Ag		7.48893		7.13436		18.1245
Ag		7.48893		38.5384		18.1245
Ag		7.48893		7.13436		42.2905
Ag		7.48893		38.5384		42.2905
N		8.02264		13.5163		16.9524
N		8.02264		44.9203		16.9524
N		8.02264		13.5163		41.1184
N		8.02264		44.9203		41.1184
N		9.54832		13.1897		13.9099
N		9.54832		44.5937		13.9099
N		9.54832		13.1897		38.0759
N		9.54832		44.5937		38.0759
N		11.8998		13.1206		13.8785
N		11.8998		44.5246		13.8785
N		11.8998		13.1206		38.0445
N		11.8998		44.5246		38.0445
N		7.12533		10.2534		14.8887
N		7.12533		41.6574		14.8887
N		7.12533		10.2534		39.0547
N		7.12533		41.6574		39.0547
N		7.01459		8.25611		16.1646
N		7.01459		39.6601		16.1646
N		7.01459		8.25611		40.3306
N		7.01459		39.6601		40.3306
N		5.44841		5.92908		18.1245
N		11.7764		5.92908		18.1245
N		5.44841		37.3331		18.1245
N		11.7764		37.3331		18.1245
N		5.44841		5.92908		42.2905
N		11.7764		5.92908		42.2905
N		5.44841		37.3331		42.2905
N		11.7764		37.3331		42.2905
N		3.10199		5.98874		18.1245
N		9.42999		5.98874		18.1245
N		3.10199		37.3927		18.1245
N		9.42999		37.3927		18.1245
N		3.10199		5.98874		42.2905
N		9.42999		5.98874		42.2905
N		3.10199		37.3927		42.2905
N		9.42999		37.3927		42.2905
C		8.78516		14.6154		16.9694
C		8.78516		46.0194		16.9694
C		8.78516		14.6154		41.1354
C		8.78516		46.0194		41.1354
C		9.19458		15.1964		18.1245
C		9.19458		46.6004		18.1245
C		9.19458		15.1964		42.2905
C		9.19458		46.6004		42.2905
C		7.68219		13.0295		18.1245
C		7.68219		44.4335		18.1245
C		7.68219		13.0295		42.2905
C		7.68219		44.4335		42.2905
C		9.56794		13.7801		12.7186
C		9.56794		45.1841		12.7186
C		9.56794		13.7801		36.8846
C		9.56794		45.1841		36.8846
C		10.7279		14.0187		12.0516
C		10.7279		45.4227		12.0516
C		10.7279		14.0187		36.2176
C		10.7279		45.4227		36.2176
C		10.7298		12.9102		14.4416
C		10.7298		44.3142		14.4416
C		10.7298		12.9102		38.6076
C		10.7298		44.3142		38.6076
C		11.8897		13.6607		12.6799
C		11.8897		45.0647		12.6799
C		11.8897		13.6607		36.8459
C		11.8897		45.0647		36.8459
C		7.43097		9.48715		15.923
C		7.43097		40.8911		15.923
C		7.43097		9.48715		40.089
C		7.43097		40.8911		40.089
C		6.30902		9.70698		13.9969
C		12.637		9.70698		13.9969
C		6.30902		41.111		13.9969
C		12.637		41.111		13.9969
C		6.30902		9.70698		38.1629
C		12.637		9.70698		38.1629
C		6.30902		41.111		38.1629
C		12.637		41.111		38.1629
C		5.79645		8.44768		14.1299
C		12.1244		8.44768		14.1299
C		5.79645		39.8517		14.1299
C		12.1244		39.8517		14.1299
C		5.79645		8.44768		38.2959
C		12.1244		8.44768		38.2959
C		5.79645		39.8517		38.2959
C		12.1244		39.8517		38.2959
C		6.18246		7.74737		15.2391
C		12.5105		7.74737		15.2391
C		6.18246		39.1514		15.2391
C		12.5105		39.1514		15.2391
C		6.18246		7.74737		39.4051
C		12.5105		7.74737		39.4051
C		6.18246		39.1514		39.4051
C		12.5105		39.1514		39.4051
C		5.41044		4.59441		18.1245
C		11.7384		4.59441		18.1245
C		5.41044		35.9984		18.1245
C		11.7384		35.9984		18.1245
C		5.41044		4.59441		42.2905
C		11.7384		4.59441		42.2905
C		5.41044		35.9984		42.2905
C		11.7384		35.9984		42.2905
C		4.29671		6.54459		18.1245
C		10.6247		6.54459		18.1245
C		4.29671		37.9486		18.1245
C		10.6247		37.9486		18.1245
C		4.29671		6.54459		42.2905
C		10.6247		6.54459		42.2905
C		4.29671		37.9486		42.2905
C		10.6247		37.9486		42.2905
C		4.24609		3.93806		18.1245
C		10.5741		3.93806		18.1245
C		4.24609		35.3421		18.1245
C		10.5741		35.3421		18.1245
C		4.24609		3.93806		42.2905
C		10.5741		3.93806		42.2905
C		4.24609		35.3421		42.2905
C		10.5741		35.3421		42.2905
C		3.07541		4.66035		18.1245
C		9.40341		4.66035		18.1245
C		3.07541		36.0644		18.1245
C		9.40341		36.0644		18.1245
C		3.07541		4.66035		42.2905
C		9.40341		4.66035		42.2905
C		3.07541		36.0644		42.2905
C		9.40341		36.0644		42.2905
Ag		7.55589		12.5016		21.2992
Ag		7.55589		43.9056		21.2992
Ag		7.55589		12.5016		45.4652
Ag		7.55589		43.9056		45.4652
Ag		1.22789		12.5016		14.9498
Ag		7.55589		12.5016		14.9498
Ag		1.22789		43.9056		14.9498
Ag		7.55589		43.9056		14.9498
Ag		1.22789		12.5016		39.1158
Ag		7.55589		12.5016		39.1158
Ag		1.22789		43.9056		39.1158
Ag		7.55589		43.9056		39.1158
Ag		1.16093		7.13436		18.1245
Ag		7.48893		7.13436		18.1245
Ag		1.16093		38.5384		18.1245
Ag		7.48893		38.5384		18.1245
Ag		1.16093		7.13436		42.2905
Ag		7.48893		7.13436		42.2905
Ag		1.16093		38.5384		42.2905
Ag		7.48893		38.5384		42.2905
N		8.02264		13.5163		19.2966
N		8.02264		44.9203		19.2966
N		8.02264		13.5163		43.4626
N		8.02264		44.9203		43.4626
N		3.22032		13.1897		13.9099
N		9.54832		13.1897		13.9099
N		3.22032		44.5937		13.9099
N		9.54832		44.5937		13.9099
N		3.22032		13.1897		38.0759
N		9.54832		13.1897		38.0759
N		3.22032		44.5937		38.0759
N		9.54832		44.5937		38.0759
N		9.54832		13.1897		22.3391
N		9.54832		44.5937		22.3391
N		9.54832		13.1897		46.5051
N		9.54832		44.5937		46.5051
N		5.5718		13.1206		13.8785
N		11.8998		13.1206		13.8785
N		5.5718		44.5246		13.8785
N		11.8998		44.5246		13.8785
N		5.5718		13.1206		38.0445
N		11.8998		13.1206		38.0445
N		5.5718		44.5246		38.0445
N		11.8998		44.5246		38.0445
N		5.5718		13.1206		22.3705
N		11.8998		13.1206		22.3705
N		5.5718		44.5246		22.3705
N		11.8998		44.5246		22.3705
N		5.5718		13.1206		46.5365
N		11.8998		13.1206		46.5365
N		5.5718		44.5246		46.5365
N		11.8998		44.5246		46.5365
N		7.12533		10.2534		21.3603
N		7.12533		41.6574		21.3603
N		7.12533		10.2534		45.5263
N		7.12533		41.6574		45.5263
N		7.01459		8.25611		20.0844
N		7.01459		39.6601		20.0844
N		7.01459		8.25611		44.2504
N		7.01459		39.6601		44.2504
N		9.42999		5.98874		18.1245
N		9.42999		37.3927		18.1245
N		9.42999		5.98874		42.2905
N		9.42999		37.3927		42.2905
C		8.78516		14.6154		19.2796
C		8.78516		46.0194		19.2796
C		8.78516		14.6154		43.4456
C		8.78516		46.0194		43.4456
C		3.23994		13.7801		12.7186
C		9.56794		13.7801		12.7186
C		3.23994		45.1841		12.7186
C		9.56794		45.1841		12.7186
C		3.23994		13.7801		36.8846
C		9.56794		13.7801		36.8846
C		3.23994		45.1841		36.8846
C		9.56794		45.1841		36.8846
C		4.39986		14.0187		12.0516
C		10.7279		14.0187		12.0516
C		4.39986		45.4227		12.0516
C		10.7279		45.4227		12.0516
C		4.39986		14.0187		36.2176
C		10.7279		14.0187		36.2176
C		4.39986		45.4227		36.2176
C		10.7279		45.4227		36.2176
C		4.40176		12.9102		14.4416
C		10.7298		12.9102		14.4416
C		4.40176		44.3142		14.4416
C		10.7298		44.3142		14.4416
C		4.40176		12.9102		38.6076
C		10.7298		12.9102		38.6076
C		4.40176		44.3142		38.6076
C		10.7298		44.3142		38.6076
C		5.56168		13.6607		12.6799
C		11.8897		13.6607		12.6799
C		5.56168		45.0647		12.6799
C		11.8897		45.0647		12.6799
C		5.56168		13.6607		36.8459
C		11.8897		13.6607		36.8459
C		5.56168		45.0647		36.8459
C		11.8897		45.0647		36.8459
C		7.43097		9.48715		20.326
C		7.43097		40.8911		20.326
C		7.43097		9.48715		44.492
C		7.43097		40.8911		44.492
C		6.30902		9.70698		22.2521
C		12.637		9.70698		22.2521
C		6.30902		41.111		22.2521
C		12.637		41.111		22.2521
C		6.30902		9.70698		46.4181
C		12.637		9.70698		46.4181
C		6.30902		41.111		46.4181
C		12.637		41.111		46.4181
C		5.79645		8.44768		22.1191
C		12.1244		8.44768		22.1191
C		5.79645		39.8517		22.1191
C		12.1244		39.8517		22.1191
C		5.79645		8.44768		46.2851
C		12.1244		8.44768		46.2851
C		5.79645		39.8517		46.2851
C		12.1244		39.8517		46.2851
C		6.18246		7.74737		21.0099
C		12.5105		7.74737		21.0099
C		6.18246		39.1514		21.0099
C		12.5105		39.1514		21.0099
C		6.18246		7.74737		45.1759
C		12.5105		7.74737		45.1759
C		6.18246		39.1514		45.1759
C		12.5105		39.1514		45.1759
N		0.879592		25.4749		30.2075
N		3.22601		25.4153		30.2075
C		0.018984		21.697		26.0799
C		0.531552		22.9563		26.2129
C		0.145544		23.6566		27.3221
C		0.91756		26.8096		30.2075
C		2.03129		24.8594		30.2075
C		2.08191		27.4659		30.2075
C		3.25259		26.7436		30.2075
Ag		5.10011		18.9024		27.0328
Ag		5.16707		24.2696		30.2075
N		3.10768		18.2143		25.9929
N		0.756196		18.2834		25.9615
N		0.756196		18.2834		34.4535
C		3.08806		17.6239		24.8016
C		1.92814		17.3853		24.1346
C		1.92814		17.3853		48.3006
C		1.92624		18.4938		26.5246
C		0.766321		17.7433		24.7629
C		0.018984		21.697		34.3351
C		0.531552		22.9563		34.2021
C		0.145544		23.6566		33.0929
N		0.879592		21.6311		18.1245
N		0.879592		53.0351		18.1245
N		3.22601		21.6907		18.1245
N		3.22601		53.0947		18.1245
C		0.018984		25.409		22.2521
C		0.018984		56.813		22.2521
C		0.531552		24.1497		22.1191
C		0.531552		55.5537		22.1191
C		0.145544		23.4494		21.0099
C		0.145544		54.8534		21.0099
C		0.91756		20.2964		18.1245
C		0.91756		51.7004		18.1245
C		2.03129		22.2466		18.1245
C		2.03129		53.6506		18.1245
C		2.08191		19.6401		18.1245
C		2.08191		51.0441		18.1245
C		3.25259		20.3624		18.1245
C		3.25259		51.7664		18.1245
Ag		5.10011		28.2036		21.2992
Ag		5.10011		59.6076		21.2992
Ag		5.16707		22.8364		18.1245
Ag		5.16707		54.2404		18.1245
N		3.10768		28.8917		22.3391
N		3.10768		60.2957		22.3391
N		0.756196		28.8226		22.3705
N		0.756196		60.2266		22.3705
N		0.756196		28.8226		13.8785
N		0.756196		60.2266		13.8785
C		3.08806		29.4821		23.5304
C		3.08806		60.8861		23.5304
C		1.92814		29.7207		0.0314158
C		1.92814		61.1247		0.0314158
C		1.92814		29.7207		24.1974
C		1.92814		61.1247		24.1974
C		1.92624		28.6122		21.8074
C		1.92624		60.0162		21.8074
C		0.766321		29.3627		23.5691
C		0.766321		60.7667		23.5691
C		0.018984		25.409		13.9969
C		0.018984		56.813		13.9969
C		0.531552		24.1497		14.1299
C		0.531552		55.5537		14.1299
C		0.145544		23.4494		15.2391
C		0.145544		54.8534		15.2391
Ag		7.55589		3.20038		9.21619
Ag		7.55589		34.6044		9.21619
Ag		7.48893		8.56764		6.0415
Ag		7.48893		39.9716		6.0415
N		8.02264		2.18572		7.21355
N		8.02264		33.5897		7.21355
N		9.54832		2.51232		10.2561
N		9.54832		33.9163		10.2561
N		11.8998		2.58141		10.2875
N		11.8998		33.9854		10.2875
N		7.12533		5.44859		9.27733
N		7.12533		36.8526		9.27733
N		7.01459		7.44589		8.00136
N		7.01459		38.8499		8.00136
N		5.44841		9.77292		6.0415
N		11.7764		9.77292		6.0415
N		5.44841		41.1769		6.0415
N		11.7764		41.1769		6.0415
N		3.10199		9.71326		6.0415
N		9.42999		9.71326		6.0415
N		3.10199		41.1173		6.0415
N		9.42999		41.1173		6.0415
C		8.78516		1.08658		7.19663
C		8.78516		32.4906		7.19663
C		9.19458		0.505604		6.0415
C		9.19458		31.9096		6.0415
C		7.68219		2.67248		6.0415
C		7.68219		34.0765		6.0415
C		9.56794		1.92192		11.4474
C		9.56794		33.3259		11.4474
C		10.7279		1.68325		12.1144
C		10.7279		33.0873		12.1144
C		10.7298		2.79182		9.7244
C		10.7298		34.1958		9.7244
C		11.8897		2.04126		11.4861
C		11.8897		33.4453		11.4861
C		7.43097		6.21485		8.24302
C		7.43097		37.6189		8.24302
C		6.30902		5.99502		10.1691
C		12.637		5.99502		10.1691
C		6.30902		37.399		10.1691
C		12.637		37.399		10.1691
C		5.79645		7.25432		10.0361
C		12.1244		7.25432		10.0361
C		5.79645		38.6583		10.0361
C		12.1244		38.6583		10.0361
C		6.18246		7.95463		8.92692
C		12.5105		7.95463		8.92692
C		6.18246		39.3586		8.92692
C		12.5105		39.3586		8.92692
C		5.41044		11.1076		6.0415
C		11.7384		11.1076		6.0415
C		5.41044		42.5116		6.0415
C		11.7384		42.5116		6.0415
C		4.29671		9.15741		6.0415
C		10.6247		9.15741		6.0415
C		4.29671		40.5614		6.0415
C		10.6247		40.5614		6.0415
C		4.24609		11.7639		6.0415
C		10.5741		11.7639		6.0415
C		4.24609		43.1679		6.0415
C		10.5741		43.1679		6.0415
C		3.07541		11.0416		6.0415
C		9.40341		11.0416		6.0415
C		3.07541		42.4456		6.0415
C		9.40341		42.4456		6.0415
Ag		7.55589		3.20038		2.86681
Ag		7.55589		34.6044		2.86681
Ag		1.22789		3.20038		9.21619
Ag		7.55589		3.20038		9.21619
Ag		1.22789		34.6044		9.21619
Ag		7.55589		34.6044		9.21619
Ag		1.16093		8.56764		6.0415
Ag		7.48893		8.56764		6.0415
Ag		1.16093		39.9716		6.0415
Ag		7.48893		39.9716		6.0415
N		8.02264		2.18572		4.86945
N		8.02264		33.5897		4.86945
N		3.22032		2.51232		10.2561
N		9.54832		2.51232		10.2561
N		3.22032		33.9163		10.2561
N		9.54832		33.9163		10.2561
N		9.54832		2.51232		1.82695
N		9.54832		33.9163		1.82695
N		5.5718		2.58141		10.2875
N		11.8998		2.58141		10.2875
N		5.5718		33.9854		10.2875
N		11.8998		33.9854		10.2875
N		5.5718		2.58141		1.79553
N		11.8998		2.58141		1.79553
N		5.5718		33.9854		1.79553
N		11.8998		33.9854		1.79553
N		7.12533		5.44859		2.80567
N		7.12533		36.8526		2.80567
N		7.01459		7.44589		4.08164
N		7.01459		38.8499		4.08164
N		9.42999		9.71326		6.0415
N		9.42999		41.1173		6.0415
C		8.78516		1.08658		4.88637
C		8.78516		32.4906		4.88637
C		3.23994		1.92192		11.4474
C		9.56794		1.92192		11.4474
C		3.23994		33.3259		11.4474
C		9.56794		33.3259		11.4474
C		4.39986		1.68325		12.1144
C		10.7279		1.68325		12.1144
C		4.39986		33.0873		12.1144
C		10.7279		33.0873		12.1144
C		4.40176		2.79182		9.7244
C		10.7298		2.79182		9.7244
C		4.40176		34.1958		9.7244
C		10.7298		34.1958		9.7244
C		5.56168		2.04126		11.4861
C		11.8897		2.04126		11.4861
C		5.56168		33.4453		11.4861
C		11.8897		33.4453		11.4861
C		7.43097		6.21485		3.83998
C		7.43097		37.6189		3.83998
C		6.30902		5.99502		1.91395
C		12.637		5.99502		1.91395
C		6.30902		37.399		1.91395
C		12.637		37.399		1.91395
C		5.79645		7.25432		2.04686
C		12.1244		7.25432		2.04686
C		5.79645		38.6583		2.04686
C		12.1244		38.6583		2.04686
C		6.18246		7.95463		3.15608
C		12.5105		7.95463		3.15608
C		6.18246		39.3586		3.15608
C		12.5105		39.3586		3.15608
N		0.879592		25.4749		6.0415
N		3.22601		25.4153		6.0415
C		0.018984		21.697		10.1691
C		0.531552		22.9563		10.0361
C		0.145544		23.6566		8.92692
C		0.91756		26.8096		6.0415
C		2.03129		24.8594		6.0415
C		2.08191		27.4659		6.0415
C		3.25259		26.7436		6.0415
Ag		5.10011		18.9024		9.21619
Ag		5.16707		24.2696		6.0415
N		3.10768		18.2143		10.2561
N		0.756196		18.2834		10.2875
N		0.756196		18.2834		1.79553
C		3.08806		17.6239		11.4474
C		1.92814		17.3853		12.1144
C		1.92624		18.4938		9.7244
C		0.766321		17.7433		11.4861
C		0.018984		21.697		1.91395
C		0.531552		22.9563		2.04686
C		0.145544		23.6566		3.15608
Ag		7.55589		12.5016		21.2992
Ag		7.55589		43.9056		21.2992
Ag		7.48893		7.13436		18.1245
Ag		7.48893		38.5384		18.1245
N		8.02264		13.5163		19.2966
N		8.02264		44.9203		19.2966
N		9.54832		13.1897		22.3391
N		9.54832		44.5937		22.3391
N		11.8998		13.1206		22.3705
N		11.8998		44.5246		22.3705
N		7.12533		10.2534		21.3603
N		7.12533		41.6574		21.3603
N		7.01459		8.25611		20.0844
N		7.01459		39.6601		20.0844
N		5.44841		5.92908		18.1245
N		11.7764		5.92908		18.1245
N		5.44841		37.3331		18.1245
N		11.7764		37.3331		18.1245
N		3.10199		5.98874		18.1245
N		9.42999		5.98874		18.1245
N		3.10199		37.3927		18.1245
N		9.42999		37.3927		18.1245
C		8.78516		14.6154		19.2796
C		8.78516		46.0194		19.2796
C		9.19458		15.1964		18.1245
C		9.19458		46.6004		18.1245
C		7.68219		13.0295		18.1245
C		7.68219		44.4335		18.1245
C		9.56794		13.7801		23.5304
C		9.56794		45.1841		23.5304
C		10.7279		14.0187		0.0314158
C		10.7279		45.4227		0.0314158
C		10.7279		14.0187		24.1974
C		10.7279		45.4227		24.1974
C		10.7298		12.9102		21.8074
C		10.7298		44.3142		21.8074
C		11.8897		13.6607		23.5691
C		11.8897		45.0647		23.5691
C		7.43097		9.48715		20.326
C		7.43097		40.8911		20.326
C		6.30902		9.70698		22.2521
C		12.637		9.70698		22.2521
C		6.30902		41.111		22.2521
C		12.637		41.111		22.2521
C		5.79645		8.44768		22.1191
C		12.1244		8.44768		22.1191
C		5.79645		39.8517		22.1191
C		12.1244		39.8517		22.1191
C		6.18246		7.74737		21.0099
C		12.5105		7.74737		21.0099
C		6.18246		39.1514		21.0099
C		12.5105		39.1514		21.0099
C		5.41044		4.59441		18.1245
C		11.7384		4.59441		18.1245
C		5.41044		35.9984		18.1245
C		11.7384		35.9984		18.1245
C		4.29671		6.54459		18.1245
C		10.6247		6.54459		18.1245
C		4.29671		37.9486		18.1245
C		10.6247		37.9486		18.1245
C		4.24609		3.93806		18.1245
C		10.5741		3.93806		18.1245
C		4.24609		35.3421		18.1245
C		10.5741		35.3421		18.1245
C		3.07541		4.66035		18.1245
C		9.40341		4.66035		18.1245
C		3.07541		36.0644		18.1245
C		9.40341		36.0644		18.1245
Ag		7.55589		12.5016		14.9498
Ag		7.55589		43.9056		14.9498
Ag		1.22789		12.5016		21.2992
Ag		7.55589		12.5016		21.2992
Ag		1.22789		43.9056		21.2992
Ag		7.55589		43.9056		21.2992
Ag		1.16093		7.13436		18.1245
Ag		7.48893		7.13436		18.1245
Ag		1.16093		38.5384		18.1245
Ag		7.48893		38.5384		18.1245
N		8.02264		13.5163		16.9524
N		8.02264		44.9203		16.9524
N		3.22032		13.1897		22.3391
N		9.54832		13.1897		22.3391
N		3.22032		44.5937		22.3391
N		9.54832		44.5937		22.3391
N		9.54832		13.1897		13.9099
N		9.54832		44.5937		13.9099
N		5.5718		13.1206		22.3705
N		11.8998		13.1206		22.3705
N		5.5718		44.5246		22.3705
N		11.8998		44.5246		22.3705
N		5.5718		13.1206		13.8785
N		11.8998		13.1206		13.8785
N		5.5718		44.5246		13.8785
N		11.8998		44.5246		13.8785
N		7.12533		10.2534		14.8887
N		7.12533		41.6574		14.8887
N		7.01459		8.25611		16.1646
N		7.01459		39.6601		16.1646
N		9.42999		5.98874		18.1245
N		9.42999		37.3927		18.1245
C		8.78516		14.6154		16.9694
C		8.78516		46.0194		16.9694
C		3.23994		13.7801		23.5304
C		9.56794		13.7801		23.5304
C		3.23994		45.1841		23.5304
C		9.56794		45.1841		23.5304
C		4.39986		14.0187		0.0314158
C		10.7279		14.0187		0.0314158
C		4.39986		45.4227		0.0314158
C		10.7279		45.4227		0.0314158
C		4.39986		14.0187		24.1974
C		10.7279		14.0187		24.1974
C		4.39986		45.4227		24.1974
C		10.7279		45.4227		24.1974
C		4.40176		12.9102		21.8074
C		10.7298		12.9102		21.8074
C		4.40176		44.3142		21.8074
C		10.7298		44.3142		21.8074
C		5.56168		13.6607		23.5691
C		11.8897		13.6607		23.5691
C		5.56168		45.0647		23.5691
C		11.8897		45.0647		23.5691
C		7.43097		9.48715		15.923
C		7.43097		40.8911		15.923
C		6.30902		9.70698		13.9969
C		12.637		9.70698		13.9969
C		6.30902		41.111		13.9969
C		12.637		41.111		13.9969
C		5.79645		8.44768		14.1299
C		12.1244		8.44768		14.1299
C		5.79645		39.8517		14.1299
C		12.1244		39.8517		14.1299
C		6.18246		7.74737		15.2391
C		12.5105		7.74737		15.2391
C		6.18246		39.1514		15.2391
C		12.5105		39.1514		15.2391
Ag		7.55589		3.20038		27.0328
Ag		7.55589		34.6044		27.0328
Ag		7.48893		8.56764		30.2075
Ag		7.48893		39.9716		30.2075
N		8.02264		2.18572		29.0354
N		8.02264		33.5897		29.0354
N		9.54832		2.51232		25.9929
N		9.54832		33.9163		25.9929
N		11.8998		2.58141		25.9615
N		11.8998		33.9854		25.9615
N		7.12533		5.44859		26.9717
N		7.12533		36.8526		26.9717
N		7.01459		7.44589		28.2476
N		7.01459		38.8499		28.2476
N		5.44841		9.77292		30.2075
N		11.7764		9.77292		30.2075
N		5.44841		41.1769		30.2075
N		11.7764		41.1769		30.2075
N		3.10199		9.71326		30.2075
N		9.42999		9.71326		30.2075
N		3.10199		41.1173		30.2075
N		9.42999		41.1173		30.2075
C		8.78516		1.08658		29.0524
C		8.78516		32.4906		29.0524
C		9.19458		0.505604		30.2075
C		9.19458		31.9096		30.2075
C		7.68219		2.67248		30.2075
C		7.68219		34.0765		30.2075
C		9.56794		1.92192		24.8016
C		9.56794		33.3259		24.8016
C		10.7279		1.68325		24.1346
C		10.7279		33.0873		24.1346
C		10.7279		1.68325		48.3006
C		10.7279		33.0873		48.3006
C		10.7298		2.79182		26.5246
C		10.7298		34.1958		26.5246
C		11.8897		2.04126		24.7629
C		11.8897		33.4453		24.7629
C		7.43097		6.21485		28.006
C		7.43097		37.6189		28.006
C		6.30902		5.99502		26.0799
C		12.637		5.99502		26.0799
C		6.30902		37.399		26.0799
C		12.637		37.399		26.0799
C		5.79645		7.25432		26.2129
C		12.1244		7.25432		26.2129
C		5.79645		38.6583		26.2129
C		12.1244		38.6583		26.2129
C		6.18246		7.95463		27.3221
C		12.5105		7.95463		27.3221
C		6.18246		39.3586		27.3221
C		12.5105		39.3586		27.3221
C		5.41044		11.1076		30.2075
C		11.7384		11.1076		30.2075
C		5.41044		42.5116		30.2075
C		11.7384		42.5116		30.2075
C		4.29671		9.15741		30.2075
C		10.6247		9.15741		30.2075
C		4.29671		40.5614		30.2075
C		10.6247		40.5614		30.2075
C		4.24609		11.7639		30.2075
C		10.5741		11.7639		30.2075
C		4.24609		43.1679		30.2075
C		10.5741		43.1679		30.2075
C		3.07541		11.0416		30.2075
C		9.40341		11.0416		30.2075
C		3.07541		42.4456		30.2075
C		9.40341		42.4456		30.2075
Ag		7.55589		3.20038		33.3822
Ag		7.55589		34.6044		33.3822
Ag		1.22789		3.20038		27.0328
Ag		7.55589		3.20038		27.0328
Ag		1.22789		34.6044		27.0328
Ag		7.55589		34.6044		27.0328
Ag		1.16093		8.56764		30.2075
Ag		7.48893		8.56764		30.2075
Ag		1.16093		39.9716		30.2075
Ag		7.48893		39.9716		30.2075
N		8.02264		2.18572		31.3796
N		8.02264		33.5897		31.3796
N		3.22032		2.51232		25.9929
N		9.54832		2.51232		25.9929
N		3.22032		33.9163		25.9929
N		9.54832		33.9163		25.9929
N		9.54832		2.51232		34.4221
N		9.54832		33.9163		34.4221
N		5.5718		2.58141		25.9615
N		11.8998		2.58141		25.9615
N		5.5718		33.9854		25.9615
N		11.8998		33.9854		25.9615
N		5.5718		2.58141		34.4535
N		11.8998		2.58141		34.4535
N		5.5718		33.9854		34.4535
N		11.8998		33.9854		34.4535
N		7.12533		5.44859		33.4433
N		7.12533		36.8526		33.4433
N		7.01459		7.44589		32.1674
N		7.01459		38.8499		32.1674
N		9.42999		9.71326		30.2075
N		9.42999		41.1173		30.2075
C		8.78516		1.08658		31.3626
C		8.78516		32.4906		31.3626
C		3.23994		1.92192		24.8016
C		9.56794		1.92192		24.8016
C		3.23994		33.3259		24.8016
C		9.56794		33.3259		24.8016
C		4.39986		1.68325		24.1346
C		10.7279		1.68325		24.1346
C		4.39986		33.0873		24.1346
C		10.7279		33.0873		24.1346
C		4.39986		1.68325		48.3006
C		10.7279		1.68325		48.3006
C		4.39986		33.0873		48.3006
C		10.7279		33.0873		48.3006
C		4.40176		2.79182		26.5246
C		10.7298		2.79182		26.5246
C		4.40176		34.1958		26.5246
C		10.7298		34.1958		26.5246
C		5.56168		2.04126		24.7629
C		11.8897		2.04126		24.7629
C		5.56168		33.4453		24.7629
C		11.8897		33.4453		24.7629
C		7.43097		6.21485		32.409
C		7.43097		37.6189		32.409
C		6.30902		5.99502		34.3351
C		12.637		5.99502		34.3351
C		6.30902		37.399		34.3351
C		12.637		37.399		34.3351
C		5.79645		7.25432		34.2021
C		12.1244		7.25432		34.2021
C		5.79645		38.6583		34.2021
C		12.1244		38.6583		34.2021
C		6.18246		7.95463		33.0929
C		12.5105		7.95463		33.0929
C		6.18246		39.3586		33.0929
C		12.5105		39.3586		33.0929
N		0.879592		21.6311		18.1245
N		0.879592		53.0351		18.1245
N		0.879592		21.6311		42.2905
N		0.879592		53.0351		42.2905
N		3.22601		21.6907		18.1245
N		3.22601		53.0947		18.1245
N		3.22601		21.6907		42.2905
N		3.22601		53.0947		42.2905
C		0.018984		25.409		13.9969
C		0.018984		56.813		13.9969
C		0.018984		25.409		38.1629
C		0.018984		56.813		38.1629
C		0.531552		24.1497		14.1299
C		0.531552		55.5537		14.1299
C		0.531552		24.1497		38.2959
C		0.531552		55.5537		38.2959
C		0.145544		23.4494		15.2391
C		0.145544		54.8534		15.2391
C		0.145544		23.4494		39.4051
C		0.145544		54.8534		39.4051
C		0.91756		20.2964		18.1245
C		0.91756		51.7004		18.1245
C		0.91756		20.2964		42.2905
C		0.91756		51.7004		42.2905
C		2.03129		22.2466		18.1245
C		2.03129		53.6506		18.1245
C		2.03129		22.2466		42.2905
C		2.03129		53.6506		42.2905
C		2.08191		19.6401		18.1245
C		2.08191		51.0441		18.1245
C		2.08191		19.6401		42.2905
C		2.08191		51.0441		42.2905
C		3.25259		20.3624		18.1245
C		3.25259		51.7664		18.1245
C		3.25259		20.3624		42.2905
C		3.25259		51.7664		42.2905
Ag		5.10011		28.2036		14.9498
Ag		5.10011		59.6076		14.9498
Ag		5.10011		28.2036		39.1158
Ag		5.10011		59.6076		39.1158
Ag		5.16707		22.8364		18.1245
Ag		5.16707		54.2404		18.1245
Ag		5.16707		22.8364		42.2905
Ag		5.16707		54.2404		42.2905
N		3.10768		28.8917		13.9099
N		3.10768		60.2957		13.9099
N		3.10768		28.8917		38.0759
N		3.10768		60.2957		38.0759
N		0.756196		28.8226		13.8785
N		0.756196		60.2266		13.8785
N		0.756196		28.8226		38.0445
N		0.756196		60.2266		38.0445
N		0.756196		28.8226		22.3705
N		0.756196		60.2266		22.3705
N		0.756196		28.8226		46.5365
N		0.756196		60.2266		46.5365
C		3.08806		29.4821		12.7186
C		3.08806		60.8861		12.7186
C		3.08806		29.4821		36.8846
C		3.08806		60.8861		36.8846
C		1.92814		29.7207		12.0516
C		1.92814		61.1247		12.0516
C		1.92814		29.7207		36.2176
C		1.92814		61.1247		36.2176
C		1.92624		28.6122		14.4416
C		1.92624		60.0162		14.4416
C		1.92624		28.6122		38.6076
C		1.92624		60.0162		38.6076
C		0.766321		29.3627		12.6799
C		0.766321		60.7667		12.6799
C		0.766321		29.3627		36.8459
C		0.766321		60.7667		36.8459
C		0.018984		25.409		22.2521
C		0.018984		56.813		22.2521
C		0.018984		25.409		46.4181
C		0.018984		56.813		46.4181
C		0.531552		24.1497		22.1191
C		0.531552		55.5537		22.1191
C		0.531552		24.1497		46.2851
C		0.531552		55.5537		46.2851
C		0.145544		23.4494		21.0099
C		0.145544		54.8534		21.0099
C		0.145544		23.4494		45.1759
C		0.145544		54.8534		45.1759
