235
data/xyz/ZIDYUG
Ag		0.0870413		1.98845		3.21048
Ag		7.37304		1.98845		3.21048
Ag		-3.207		10.481		3.21048
Ag		4.079		10.481		3.21048
Ag		-0.0912383		-0.530168		13.9003
Ag		7.19476		-0.530168		13.9003
Ag		-3.38528		7.96237		13.9003
Ag		3.90072		7.96237		13.9003
N		2.32867		2.42593		3.40793
N		9.61467		2.42593		3.40793
N		-0.965367		10.9185		3.40793
N		6.32063		10.9185		3.40793
N		2.15039		-0.0926975		14.0978
N		9.43639		-0.0926975		14.0978
N		-1.14365		8.39984		14.0978
N		6.14235		8.39984		14.0978
C		3.03359		3.02492		2.44798
C		10.3196		3.02492		2.44798
C		-0.260448		11.5175		2.44798
C		7.02555		11.5175		2.44798
C		2.85531		0.506297		13.1378
C		10.1413		0.506297		13.1378
C		-0.438727		8.99883		13.1378
C		6.84727		8.99883		13.1378
C		4.41692		3.01882		2.45225
C		11.7029		3.01882		2.45225
C		1.12288		11.5114		2.45225
C		8.40888		11.5114		2.45225
C		4.23864		0.500194		13.1421
C		11.5246		0.500194		13.1421
C		0.944603		8.99273		13.1421
C		8.2306		8.99273		13.1421
N		5.11761		2.42391		3.41648
N		12.4036		2.42391		3.41648
N		1.82357		10.9164		3.41648
N		9.10957		10.9164		3.41648
N		4.93933		-0.0947124		14.1063
N		12.2253		-0.0947124		14.1063
N		1.64529		8.39783		14.1063
N		8.93129		8.39783		14.1063
C		4.41132		1.84574		4.38177
C		11.6973		1.84574		4.38177
C		1.11728		10.3383		4.38177
C		8.40328		10.3383		4.38177
C		4.23304		-0.672886		15.0716
C		11.519		-0.672886		15.0716
C		0.939004		7.81965		15.0716
C		8.225		7.81965		15.0716
C		3.03069		1.83835		4.3807
C		10.3167		1.83835		4.3807
C		-0.263345		10.3309		4.3807
C		7.02265		10.3309		4.3807
C		2.85241		-0.680277		15.0706
C		10.1384		-0.680277		15.0706
C		-0.441625		7.81226		15.0706
C		6.84438		7.81226		15.0706
N		0.0105078		0.787922		1.14702
N		7.29651		0.787922		1.14702
N		-3.28353		9.28046		1.14702
N		4.00247		9.28046		1.14702
N		-0.167772		-1.7307		11.8369
N		7.11823		-1.7307		11.8369
N		-3.46181		6.76184		11.8369
N		3.82419		6.76184		11.8369
C		6.18612		0.231351		0.690565
C		2.89208		8.72389		0.690565
C		6.00784		-2.28727		11.3804
C		2.7138		6.20527		11.3804
C		1.10994		0.543803		0.445767
C		8.39594		0.543803		0.445767
C		-2.1841		9.03634		0.445767
C		5.1019		9.03634		0.445767
C		0.931661		-1.97482		11.1356
C		8.21766		-1.97482		11.1356
C		-2.36238		6.51772		11.1356
C		4.92362		6.51772		11.1356
N		0.0131523		-0.0441375		4.68216
N		7.29915		-0.0441375		4.68216
N		-3.28089		8.4484		4.68216
N		4.00511		8.4484		4.68216
N		-0.165127		-2.56276		15.372
N		7.12087		-2.56276		15.372
N		-3.45917		5.92978		15.372
N		3.82683		5.92978		15.372
C		0.0663862		-0.134908		5.96494
C		7.35239		-0.134908		5.96494
C		-3.22765		8.35763		5.96494
C		4.05835		8.35763		5.96494
C		-0.111893		-2.65353		16.6548
C		7.17411		-2.65353		16.6548
C		-3.40593		5.83901		16.6548
C		3.88007		5.83901		16.6548
C		3.8322		7.28777		4.0429
C		3.65393		4.76914		14.7328
N		5.11761		2.42391		3.41648
N		1.82357		10.9164		3.41648
N		4.93933		-0.0947124		14.1063
N		1.64529		8.39783		14.1063
C		2.70374		5.43011		10.2441
C		-2.37244		5.74256		9.99929
C		4.91356		5.74256		9.99929
C		-0.0185226		-1.31385		6.64695
C		7.26748		-1.31385		6.64695
C		-3.31256		7.17869		6.64695
C		3.97344		7.17869		6.64695
C		-0.196802		-3.83247		17.3368
C		7.0892		-3.83247		17.3368
C		-3.49084		4.66006		17.3368
C		3.79516		4.66006		17.3368
C		3.7473		6.10882		4.72492
C		3.56902		3.5902		15.4148
N		3.80317		5.18599		9.54283
N		3.80053		6.01805		6.0077
N		3.62225		3.49943		16.6976
Ag		3.72664		3.98546		7.47937
Ag		3.72664		3.98546		7.47937
Ag		3.54836		1.46684		18.1692
N		1.48501		3.54799		7.28193
N		1.30673		1.02937		17.9718
N		-1.30393		3.55		7.27338
N		5.98207		3.55		7.27338
N		-1.48221		1.03138		17.9632
N		5.80379		1.03138		17.9632
N		3.80317		5.18599		9.54283
N		3.62489		2.66737		20.2327
C		-0.603239		2.9551		8.2376
C		6.68276		2.9551		8.2376
C		-0.781519		0.436474		18.9275
C		6.50448		0.436474		18.9275
C		-0.59764		4.12818		6.30808
C		6.68836		4.12818		6.30808
C		-0.775919		1.60955		16.9979
C		6.51008		1.60955		16.9979
C		0.780092		2.94899		8.24188
C		8.06609		2.94899		8.24188
C		0.601812		0.430371		18.9317
C		7.88781		0.430371		18.9317
C		0.782989		4.13557		6.30915
C		8.06899		4.13557		6.30915
C		0.60471		1.61695		16.999
C		7.89071		1.61695		16.999
N		1.48501		3.54799		7.28193
N		8.77101		3.54799		7.28193
N		1.30673		1.02937		17.9718
N		8.59273		1.02937		17.9718
Ag		3.72664		3.98546		7.47937
Ag		11.0126		3.98546		7.47937
Ag		3.54836		1.46684		18.1692
Ag		10.8344		1.46684		18.1692
Ag		7.37304		1.98845		3.21048
Ag		4.079		10.481		3.21048
Ag		7.19476		-0.530168		13.9003
Ag		3.90072		7.96237		13.9003
Ag		3.72664		3.98546		7.47937
N		1.48501		3.54799		7.28193
C		0.780092		2.94899		8.24188
C		-0.603239		2.9551		8.2376
N		-1.30393		3.55		7.27338
C		-0.59764		4.12818		6.30808
C		0.782989		4.13557		6.30915
N		3.80317		5.18599		9.54283
C		-2.37244		5.74256		9.99929
C		4.91356		5.74256		9.99929
C		2.70374		5.43011		10.2441
N		3.80053		6.01805		6.0077
C		3.7473		6.10882		4.72492
C		-0.0185226		-1.31385		6.64695
C		7.26748		-1.31385		6.64695
C		-3.31256		7.17869		6.64695
C		3.97344		7.17869		6.64695
N		-1.30393		3.55		7.27338
N		5.98207		3.55		7.27338
C		1.10994		0.543803		0.445767
C		8.39594		0.543803		0.445767
C		-2.1841		9.03634		0.445767
C		5.1019		9.03634		0.445767
C		0.931661		-1.97482		11.1356
C		8.21766		-1.97482		11.1356
C		-2.36238		6.51772		11.1356
C		4.92362		6.51772		11.1356
C		6.18612		0.231351		0.690565
C		2.89208		8.72389		0.690565
C		6.00784		-2.28727		11.3804
C		2.7138		6.20527		11.3804
C		3.8322		7.28777		4.0429
C		0.0663862		-0.134908		5.96494
C		7.35239		-0.134908		5.96494
C		-3.22765		8.35763		5.96494
C		4.05835		8.35763		5.96494
N		0.0105078		0.787922		1.14702
N		7.29651		0.787922		1.14702
N		-3.28353		9.28046		1.14702
N		4.00247		9.28046		1.14702
N		-0.167772		-1.7307		11.8369
N		7.11823		-1.7307		11.8369
N		-3.46181		6.76184		11.8369
N		3.82419		6.76184		11.8369
N		0.0131523		-0.0441375		4.68216
N		7.29915		-0.0441375		4.68216
N		-3.28089		8.4484		4.68216
N		4.00511		8.4484		4.68216
Ag		0.0870413		1.98845		3.21048
Ag		7.37304		1.98845		3.21048
Ag		-3.207		10.481		3.21048
Ag		4.079		10.481		3.21048
Ag		-0.0912383		-0.530168		13.9003
Ag		7.19476		-0.530168		13.9003
Ag		-3.38528		7.96237		13.9003
Ag		3.90072		7.96237		13.9003
Ag		0.0870413		1.98845		3.21048
Ag		7.37304		1.98845		3.21048
Ag		-3.207		10.481		3.21048
Ag		4.079		10.481		3.21048
N		2.32867		2.42593		3.40793
N		9.61467		2.42593		3.40793
N		-0.965367		10.9185		3.40793
N		6.32063		10.9185		3.40793
N		5.11761		2.42391		3.41648
N		1.82357		10.9164		3.41648
N		0.0105078		0.787922		1.14702
N		7.29651		0.787922		1.14702
N		-3.28353		9.28046		1.14702
N		4.00247		9.28046		1.14702
C		4.41692		3.01882		2.45225
C		1.12288		11.5114		2.45225
C		4.41132		1.84574		4.38177
C		1.11728		10.3383		4.38177
C		3.03359		3.02492		2.44798
C		-0.260448		11.5175		2.44798
C		3.03069		1.83835		4.3807
C		-0.263345		10.3309		4.3807
N		2.32867		2.42593		3.40793
N		-0.965367		10.9185		3.40793
Ag		0.0870413		1.98845		3.21048
Ag		-3.207		10.481		3.21048
