967
data/pers/DAXNEY
P -0.461175 9.04203 0
P -0.461175 4.27312 0
P -0.461175 4.27312 0
P -0.461175 4.27312 0
P -0.461175 4.27312 0
P -1.17833 -0.0583678 0
P -1.17833 -0.0583678 0
P -1.17832 -0.0583678 0
P -1.17832 -0.0583678 0
P -1.17832 -0.0584111 0
P -1.17832 -0.0584111 0
P -1.1783 -0.0584111 0
P -1.1783 -0.0584111 0
P 3.95965 4.27313 0
P 3.95965 4.27313 0
P 3.95965 4.27312 0
P 3.95965 4.27312 0
P 3.95965 4.27312 0
P 3.95965 4.27312 0
P 3.95965 4.27312 0
P 3.95965 4.27312 0
P 3.95965 4.27311 0
P 3.95965 4.27311 0
P 3.95965 4.27311 0
P 3.95965 4.27311 0
P 3.95965 4.27311 0
P 3.95965 4.27311 0
P 3.95965 4.27311 0
P 3.95965 4.27311 0
P 3.95965 4.27311 0
P 3.95965 4.27311 0
P 3.95965 4.27311 0
P 3.95965 4.27311 0
P 3.95965 4.2731 0
P 3.95965 4.2731 0
P 3.95965 4.2731 0
P 3.95965 4.2731 0
P 1.20193 1.44573 0
P 1.20193 1.44573 0
P 1.20193 1.44573 0
P 1.20193 1.44573 0
P 1.20196 1.44575 0
P 1.20196 1.44575 0
P 1.20192 1.44571 0
P 1.20192 1.44571 0
P 1.20192 1.44571 0
P 1.20192 1.44571 0
P 1.20192 1.44571 0
P 1.20192 1.44571 0
P 1.20192 1.44571 0
P 1.20192 1.44571 0
P 1.20196 1.44575 0
P 1.20196 1.44575 0
P 1.20195 1.44573 0
P 1.20195 1.44573 0
P 1.20195 1.44573 0
P 1.20195 1.44573 0
P 1.20195 1.44573 0
P 1.20195 1.44573 0
P 1.20195 1.44573 0
P 1.20195 1.44573 0
P 1.20192 1.44568 0
P 1.20192 1.44568 0
P 1.20192 1.44568 0
P 1.20192 1.44568 0
P 1.20194 1.44571 0
P 1.20194 1.44571 0
P 1.20194 1.4457 0
P 1.20194 1.4457 0
P 1.20194 1.4457 0
P 1.20194 1.4457 0
P 1.20194 1.4457 0
P 1.20194 1.4457 0
P 1.20193 1.44569 0
P 1.20193 1.44569 0
P 1.20193 1.44569 0
P 1.20193 1.44569 0
P 1.20196 1.44572 0
P 1.20196 1.44572 0
P 1.20196 1.44572 0
P 1.20196 1.44572 0
P 1.20192 1.44568 0
P 1.20192 1.44568 0
P 1.20192 1.44568 0
P 1.20192 1.44568 0
P 1.20192 1.44568 0
P 1.20192 1.44568 0
P 1.20192 1.44568 0
P 1.20192 1.44568 0
P 1.20192 1.44567 0
P 1.20192 1.44567 0
P 1.20192 1.44567 0
P 1.20192 1.44567 0
P 1.20192 1.44567 0
P 1.20192 1.44567 0
P 1.20192 1.44567 0
P 1.20192 1.44567 0
P 1.20196 1.44572 0
P 1.20196 1.44572 0
P 1.20195 1.4457 0
P 1.20195 1.4457 0
P 1.20195 1.4457 0
P 1.20195 1.4457 0
P 1.20196 1.44571 0
P 1.20196 1.44571 0
P 1.20195 1.4457 0
P 1.20195 1.4457 0
P 1.20195 1.4457 0
P 1.20195 1.4457 0
P 1.20195 1.4457 0
P 1.20195 1.4457 0
P 1.20195 1.4457 0
P 1.20195 1.4457 0
P 1.20195 1.44569 0
P 1.20195 1.44569 0
P 1.20195 1.44569 0
P 1.20195 1.44569 0
P 1.20192 1.44565 0
P 1.20192 1.44565 0
P 1.20192 1.44565 0
P 1.20192 1.44565 0
P 1.20192 1.44565 0
P 1.20192 1.44565 0
P 1.20192 1.44565 0
P 1.20192 1.44565 0
P 1.20195 1.44568 0
P 1.20195 1.44568 0
P 1.20194 1.44567 0
P 1.20194 1.44567 0
P 1.20195 1.44567 0
P 1.20195 1.44567 0
P 1.20194 1.44567 0
P 1.20194 1.44567 0
P 1.20196 1.44566 0
P 1.20196 1.44566 0
P 1.20196 1.44566 0
P 1.20196 1.44566 0
P 1.20199 1.44568 0
P 1.20199 1.44568 0
P 1.20194 1.44564 0
P 1.20194 1.44564 0
P 1.20194 1.44564 0
P 1.20194 1.44564 0
P 1.20194 1.44564 0
P 1.20194 1.44564 0
P 1.20194 1.44564 0
P 1.20194 1.44564 0
P 1.20199 1.44568 0
P 1.20199 1.44568 0
P 1.20197 1.44566 0
P 1.20197 1.44566 0
P 1.20197 1.44566 0
P 1.20197 1.44566 0
P 1.20197 1.44566 0
P 1.20197 1.44566 0
P 1.20197 1.44566 0
P 1.20197 1.44566 0
P 1.20194 1.44561 0
P 1.20194 1.44561 0
P 1.20194 1.44561 0
P 1.20194 1.44561 0
P 1.20197 1.44564 0
P 1.20197 1.44564 0
P 1.20197 1.44563 0
P 1.20197 1.44563 0
P 1.47069 1.59893 0
P 1.47062 1.59884 0
P 1.47069 1.59892 0
P 1.47069 1.59892 0
P 1.47063 1.59885 0
P 1.47062 1.59884 0
P 1.47062 1.59884 0
P 1.47066 1.59888 0
P 1.47066 1.59888 0
P 1.47065 1.59887 0
P 1.47065 1.59887 0
P 1.47062 1.59883 0
P 1.47062 1.59883 0
P 1.47063 1.59884 0
P 1.47063 1.59884 0
P 1.47062 1.59883 0
P 1.47062 1.59883 0
P 1.47062 1.59883 0
P 1.47062 1.59883 0
P 1.47066 1.59887 0
P 1.47066 1.59887 0
P 1.47066 1.59887 0
P 1.47066 1.59887 0
P 1.47065 1.59886 0
P 1.47065 1.59886 0
P 1.47065 1.59886 0
P 1.47065 1.59886 0
P 1.47069 1.59889 0
P 1.47062 1.5988 0
P 1.47063 1.59881 0
P 1.47062 1.5988 0
P 1.47062 1.5988 0
P 1.47066 1.59884 0
P 1.47066 1.59884 0
P 1.47065 1.59883 0
P 1.47065 1.59883 0
P 1.47067 1.59883 0
P 1.47064 1.5988 0
P 1.47064 1.5988 0
P 1.47065 1.59881 0
P 1.47065 1.59881 0
P 1.47068 1.59884 0
P 1.47068 1.59884 0
P 1.47067 1.59882 0
P 1.47067 1.59882 0
P 1.47064 1.59879 0
P 1.47064 1.59879 0
P 1.47064 1.59879 0
P 1.47064 1.59879 0
P 1.47065 1.5988 0
P 1.47065 1.5988 0
P 1.47065 1.5988 0
P 1.47065 1.5988 0
P 1.47068 1.59882 0
P 1.47068 1.59882 0
P 1.47068 1.59882 0
P 1.47068 1.59882 0
P 1.47067 1.59879 0
P 1.47064 1.59876 0
P 1.47064 1.59876 0
P 1.47065 1.59877 0
P 1.47065 1.59877 0
P 1.47068 1.59879 0
P 1.47068 1.59879 0
P -1.22859 -1.12862 0
P -1.22859 -1.12862 0
P -1.22859 -1.12862 0
P -1.22859 -1.12862 0
P -1.22859 -1.12862 0
P -1.22859 -1.12862 0
P -1.22859 -1.12862 0
P -1.22859 -1.12862 0
P -1.22859 -1.12864 0
P -1.22859 -1.12864 0
P -1.22859 -1.12864 0
P -1.22859 -1.12864 0
P -1.22859 -1.12864 0
P -1.22859 -1.12864 0
P -1.22859 -1.12864 0
P -1.22859 -1.12864 0
P 0.663117 0.756837 0
P 0.663117 0.756837 0
P 0.66313 0.756847 0
P 0.66313 0.756847 0
P 0.663126 0.756833 0
P 0.663126 0.756833 0
P 0.663126 0.756833 0
P 0.663126 0.756833 0
P 0.663139 0.756843 0
P 0.663139 0.756843 0
P 0.663139 0.756843 0
P 0.663139 0.756843 0
P 0.663202 0.756904 0
P 0.663202 0.756904 0
P 0.663215 0.756914 0
P 0.663215 0.756914 0
P 0.663209 0.756909 0
P 0.663209 0.756909 0
P 0.663222 0.756919 0
P 0.663222 0.756919 0
P 0.663273 0.756967 0
P 0.663273 0.756967 0
P 0.663286 0.756977 0
P 0.663286 0.756977 0
P 0.663211 0.7569 0
P 0.663211 0.7569 0
P 0.663211 0.7569 0
P 0.663211 0.7569 0
P 0.663224 0.75691 0
P 0.663224 0.75691 0
P 0.663224 0.75691 0
P 0.663224 0.75691 0
P 0.663218 0.756905 0
P 0.663218 0.756905 0
P 0.663218 0.756905 0
P 0.663218 0.756905 0
P 0.663231 0.756915 0
P 0.663231 0.756915 0
P 0.663231 0.756915 0
P 0.663231 0.756915 0
P 0.663282 0.756963 0
P 0.663282 0.756963 0
P 0.663282 0.756963 0
P 0.663282 0.756963 0
P 0.663295 0.756973 0
P 0.663295 0.756973 0
P 0.663295 0.756973 0
P 0.663295 0.756973 0
P 0.663136 0.756805 0
P 0.663136 0.756805 0
P 0.663148 0.756815 0
P 0.663148 0.756815 0
P 0.663221 0.756872 0
P 0.663221 0.756872 0
P 0.663233 0.756882 0
P 0.663233 0.756882 0
P 0.663228 0.756876 0
P 0.663228 0.756876 0
P 0.66324 0.756886 0
P 0.66324 0.756886 0
P 0.663291 0.756935 0
P 0.663291 0.756935 0
P 0.663304 0.756945 0
P 0.663304 0.756945 0
P 0.66324 0.687237 0
P 0.66324 0.687237 0
P 0.663233 0.68723 0
P 0.663233 0.68723 0
P 0.663304 0.687301 0
P 0.663231 0.687228 0
P 0.663231 0.687228 0
P 0.663295 0.687291 0
P 0.663304 0.687301 0
P 0.663295 0.687291 0
P 0.663295 0.687291 0
P 0.663295 0.687291 0
P 0.663286 0.687282 0
P 0.663286 0.687282 0
P 0.663231 0.687228 0
P 0.663231 0.687228 0
P 0.66313 0.687126 0
P 0.663215 0.687211 0
P 0.663215 0.687211 0
P 0.663222 0.687218 0
P 0.663224 0.687221 0
P 0.663224 0.687221 0
P 0.663139 0.687136 0
P 0.663224 0.687221 0
P 0.663224 0.687221 0
P 0.663139 0.687136 0
P 0.663139 0.687136 0
P 0.663139 0.687136 0
P 0.66313 0.687126 0
P 0.663148 0.687145 0
P 0.663148 0.687145 0
P 0.663222 0.687218 0
P 0.663243 0.687227 0
P 0.663243 0.687227 0
P 0.663236 0.68722 0
P 0.663236 0.68722 0
P 0.663218 0.687202 0
P 0.663234 0.687218 0
P 0.663234 0.687218 0
P 0.663234 0.687218 0
P 0.663307 0.687291 0
P 0.663218 0.687202 0
P 0.663234 0.687218 0
P 0.663307 0.687291 0
P 0.663298 0.687282 0
P 0.663298 0.687282 0
P 0.663298 0.687282 0
P 0.663298 0.687282 0
P 0.663289 0.687273 0
P 0.663289 0.687273 0
P 0.663133 0.687117 0
P 0.663142 0.687126 0
P 0.663142 0.687126 0
P 0.663133 0.687117 0
P 0.663227 0.687211 0
P 0.663225 0.687209 0
P 0.663227 0.687211 0
P 0.663225 0.687209 0
P 0.663227 0.687211 0
P 0.663151 0.687135 0
P 0.663151 0.687135 0
P 0.663142 0.687126 0
P 0.663142 0.687126 0
P 0.663227 0.687211 0
P -1.1783 -1.15611 0
P -1.1783 -1.15611 0
P -1.1783 -1.15611 0
P -1.1783 -1.15611 0
P -1.17831 -1.15611 0
P -1.17831 -1.15611 0
P -1.17832 -1.15612 0
P -1.17832 -1.15612 0
P -1.17832 -1.15612 0
P -1.17832 -1.15612 0
P -1.1783 -1.15611 0
P -1.1783 -1.15611 0
P -1.17833 -1.15613 0
P -1.17832 -1.15612 0
P -1.17832 -1.15612 0
P -1.17832 -1.15612 0
P -1.17832 -1.15612 0
P -1.17832 -1.15612 0
P -1.17832 -1.15612 0
P -1.17832 -1.15612 0
P -1.17832 -1.15612 0
P -1.17833 -1.15613 0
P -1.17833 -1.15613 0
P -1.17833 -1.15613 0
P -1.17835 -1.15616 0
P -1.17835 -1.15616 0
P -1.17836 -1.15616 0
P -1.17836 -1.15616 0
P -1.17836 -1.15616 0
P -1.17836 -1.15616 0
P -1.17836 -1.15617 0
P -1.17836 -1.15617 0
P -1.1783 -1.15612 0
P -1.1783 -1.15611 0
P -1.1783 -1.15611 0
P -1.1783 -1.15612 0
P -1.1783 -1.15612 0
P -1.1783 -1.15612 0
P -1.17832 -1.15613 0
P -1.17832 -1.15613 0
P -1.17832 -1.15613 0
P -1.17832 -1.15613 0
P -1.17832 -1.15613 0
P -1.17832 -1.15613 0
P -1.17832 -1.15613 0
P -1.17831 -1.15612 0
P -1.17831 -1.15612 0
P -1.17831 -1.15613 0
P -1.17831 -1.15613 0
P -1.17831 -1.15613 0
P -1.17831 -1.15613 0
P -1.17832 -1.15613 0
P -1.17832 -1.15614 0
P -1.17832 -1.15614 0
P -1.17832 -1.15614 0
P -1.17835 -1.15617 0
P -1.17835 -1.15617 0
P -1.17832 -1.15614 0
P -1.17835 -1.15617 0
P -1.17835 -1.15617 0
P -1.17835 -1.15617 0
P -1.17835 -1.15617 0
P -1.17836 -1.15618 0
P -1.17836 -1.15618 0
